Version 4
SHEET 1 880 680
WIRE 368 -512 176 -512
WIRE 176 -464 176 -512
WIRE 368 -464 368 -512
WIRE 368 -368 368 -400
WIRE 32 -352 -128 -352
WIRE 176 -336 176 -384
WIRE 32 -320 32 -352
WIRE 368 -272 368 -304
WIRE 32 -208 32 -240
WIRE 368 -176 368 -208
WIRE -128 -128 -128 -352
WIRE -160 -112 -240 -112
WIRE 96 -96 -96 -96
WIRE -160 -80 -368 -80
WIRE 368 -80 368 -112
WIRE -368 -48 -368 -80
WIRE -128 -16 -128 -64
WIRE 368 16 368 -16
WIRE -368 96 -368 32
WIRE 96 96 96 -96
WIRE 192 96 96 96
WIRE 320 96 272 96
WIRE -240 144 -240 -112
WIRE 368 144 368 112
WIRE 368 144 -240 144
WIRE 368 160 368 144
WIRE 368 272 368 240
FLAG 176 -336 0
FLAG 32 -208 0
FLAG -128 -16 0
FLAG 368 272 0
FLAG -368 96 0
SYMBOL OpAmps\\AD549 -128 -160 R0
SYMATTR InstName U1
SYMBOL LED 352 -464 R0
SYMATTR InstName D1
SYMATTR Value 2.56
SYMBOL LED 352 -368 R0
SYMATTR InstName D2
SYMATTR Value 2.56
SYMBOL LED 352 -272 R0
SYMATTR InstName D3
SYMATTR Value 2.56
SYMBOL LED 352 -176 R0
SYMATTR InstName D4
SYMATTR Value 2.56
SYMBOL LED 352 -80 R0
SYMATTR InstName D5
SYMATTR Value 2.56
SYMBOL res 352 144 R0
SYMATTR InstName R1
SYMATTR Value 1
SYMBOL voltage 176 -480 R0
WINDOW 123 0 0 Left 0
WINDOW 39 24 44 Left 2
SYMATTR InstName V1
SYMATTR Value 14.8
SYMATTR SpiceLine Rser=.1
SYMBOL voltage 32 -336 R0
SYMATTR InstName V2
SYMATTR Value 3.3
SYMBOL nmos 320 16 R0
SYMATTR InstName M1
SYMBOL res 288 80 R90
WINDOW 0 0 56 VBottom 2
WINDOW 3 32 56 VTop 2
SYMATTR InstName R2
SYMATTR Value 10k
SYMBOL voltage -368 -64 R0
SYMATTR InstName V3
SYMATTR Value 1.4
