Version 4
SHEET 1 1000 680
WIRE 304 -288 208 -288
WIRE 432 -288 384 -288
WIRE 432 -272 432 -288
WIRE 96 -192 80 -192
WIRE 208 -192 208 -288
WIRE 208 -192 176 -192
WIRE 288 -192 208 -192
WIRE 288 -112 288 -192
WIRE 80 -96 80 -192
WIRE 256 -96 80 -96
WIRE 432 -80 320 -80
WIRE 544 -80 432 -80
WIRE 656 -80 624 -80
WIRE 704 -80 656 -80
WIRE -400 -64 -560 -64
WIRE -208 -64 -320 -64
WIRE -96 -64 -128 -64
WIRE 256 -64 -96 -64
WIRE 656 -32 656 -80
WIRE -560 -16 -560 -64
WIRE -96 -16 -96 -64
WIRE 288 -16 288 -48
WIRE 656 80 656 48
WIRE -560 96 -560 64
WIRE -96 96 -96 64
WIRE 80 128 80 -96
WIRE 112 128 80 128
WIRE 208 128 176 128
WIRE 80 224 80 128
WIRE 96 224 80 224
WIRE 208 224 208 128
WIRE 208 224 176 224
WIRE 432 224 432 -80
WIRE 432 224 208 224
FLAG -560 96 0
FLAG 656 80 0
FLAG -560 -64 Vin
FLAG 704 -80 Vout
FLAG 432 -272 0
FLAG -96 96 0
FLAG 288 -16 0
SYMBOL res 640 -96 R90
WINDOW 0 0 56 VBottom 2
WINDOW 3 32 56 VTop 2
SYMATTR InstName R1
SYMATTR Value 47
SYMBOL voltage -560 -32 R0
WINDOW 123 0 0 Left 0
WINDOW 39 0 0 Left 0
SYMATTR InstName V1
SYMATTR Value 2.5
SYMBOL res -112 -80 R90
WINDOW 0 0 56 VBottom 2
WINDOW 3 32 56 VTop 2
SYMATTR InstName R2
SYMATTR Value 24k
SYMBOL res -112 -32 R0
SYMATTR InstName R3
SYMATTR Value 100k
SYMBOL res 640 -48 R0
SYMATTR InstName R4
SYMATTR Value 270
SYMBOL voltage 288 -288 R270
WINDOW 0 32 56 VTop 2
WINDOW 3 -32 56 VBottom 2
SYMATTR InstName V2
SYMATTR Value 5v
SYMBOL res 192 -208 R90
WINDOW 0 0 56 VBottom 2
WINDOW 3 32 56 VTop 2
SYMATTR InstName R5
SYMATTR Value 150k
SYMBOL cap 176 112 R90
WINDOW 0 0 32 VBottom 2
WINDOW 3 32 32 VTop 2
SYMATTR InstName C1
SYMATTR Value 104n
SYMBOL res 192 208 R90
WINDOW 0 0 56 VBottom 2
WINDOW 3 32 56 VTop 2
SYMATTR InstName R6
SYMATTR Value 12k
SYMBOL OpAmps\\OP777 288 -144 R0
SYMATTR InstName U2
SYMBOL voltage -304 -64 R90
WINDOW 0 -32 56 VBottom 2
WINDOW 3 32 56 VTop 2
WINDOW 123 0 0 Left 0
WINDOW 39 0 0 Left 0
SYMATTR InstName V3
SYMATTR Value AC 1.
TEXT -248 -280 Left 2 !.ac dec 10 .1 100k
