Version 4
SHEET 1 1044 680
WIRE 64 -96 -16 -96
WIRE 256 -96 64 -96
WIRE 416 -96 256 -96
WIRE 256 -80 256 -96
WIRE -16 -64 -16 -96
WIRE 416 -48 416 -96
WIRE 208 16 128 16
WIRE 128 64 128 16
WIRE 96 80 48 80
WIRE 240 96 160 96
WIRE 256 96 240 96
WIRE 416 96 416 32
WIRE 416 96 336 96
WIRE 528 96 416 96
WIRE -240 112 -448 112
WIRE -128 112 -160 112
WIRE -16 112 -16 16
WIRE -16 112 -48 112
WIRE 96 112 -16 112
WIRE 64 144 64 -96
WIRE 128 144 128 128
WIRE 128 144 64 144
WIRE -448 160 -448 112
WIRE 208 160 208 16
WIRE 208 160 144 160
WIRE 240 160 240 96
WIRE 400 160 240 160
WIRE 48 192 48 80
WIRE 144 192 144 160
WIRE 144 192 128 192
WIRE 256 192 144 192
WIRE -448 272 -448 240
WIRE 256 272 256 192
WIRE 48 288 48 192
WIRE 64 288 48 288
WIRE 160 288 128 288
WIRE 48 384 48 288
WIRE 160 384 160 288
WIRE 160 384 128 384
WIRE 400 384 400 160
WIRE 400 384 160 384
WIRE 256 416 256 352
FLAG -448 272 0
FLAG 256 -80 0
FLAG 256 416 0
FLAG -448 112 Vin
FLAG 528 96 Vout
SYMBOL res 352 80 R90
WINDOW 0 0 56 VBottom 2
WINDOW 3 32 56 VTop 2
SYMATTR InstName R1
SYMATTR Value 47
SYMBOL voltage -448 144 R0
WINDOW 123 0 0 Left 0
WINDOW 39 0 0 Left 0
SYMATTR InstName V1
SYMATTR Value 2.5
SYMBOL res -32 96 R90
WINDOW 0 0 56 VBottom 2
WINDOW 3 32 56 VTop 2
SYMATTR InstName R2
SYMATTR Value 12k
SYMBOL res -32 -80 R0
SYMATTR InstName R3
SYMATTR Value 100k
SYMBOL res 400 -64 R0
SYMATTR InstName R4
SYMATTR Value 220
SYMBOL voltage 256 256 R0
SYMATTR InstName V2
SYMATTR Value 5v
SYMBOL res 144 176 R90
WINDOW 0 0 56 VBottom 2
WINDOW 3 32 56 VTop 2
SYMATTR InstName R5
SYMATTR Value 100k
SYMBOL cap 128 272 R90
WINDOW 0 0 32 VBottom 2
WINDOW 3 32 32 VTop 2
SYMATTR InstName C1
SYMATTR Value 104n
SYMBOL res 144 368 R90
WINDOW 0 0 56 VBottom 2
WINDOW 3 32 56 VTop 2
SYMATTR InstName R6
SYMATTR Value 12k
SYMBOL OpAmps\\OP07 128 32 R0
SYMATTR InstName U2
SYMBOL voltage -144 112 R90
WINDOW 0 -32 56 VBottom 2
WINDOW 3 32 56 VTop 2
WINDOW 123 0 0 Left 0
WINDOW 39 0 0 Left 0
SYMATTR InstName V3
SYMATTR Value SINE(0 .1 2000)
TEXT -224 304 Left 2 !.dc V1 0 5 .001
