Version 4
SHEET 1 1004 680
WIRE 528 -384 528 -416
WIRE 528 -272 528 -304
WIRE 528 -272 224 -272
WIRE 288 -160 288 -192
WIRE 224 -144 224 -272
WIRE 256 -144 224 -144
WIRE 432 -128 320 -128
WIRE 528 -128 528 -272
WIRE 528 -128 496 -128
WIRE 96 -112 0 -112
WIRE 256 -112 96 -112
WIRE 96 -64 96 -112
WIRE 288 -64 288 -96
WIRE 528 -64 528 -128
WIRE 624 -64 528 -64
WIRE 688 -64 624 -64
WIRE 0 -48 0 -112
WIRE 624 -32 624 -64
WIRE 0 48 0 16
WIRE 96 48 96 16
WIRE 96 48 0 48
WIRE -192 64 -192 32
WIRE 96 64 96 48
WIRE 624 64 624 32
WIRE 288 96 288 64
WIRE 224 112 224 -144
WIRE 256 112 224 112
WIRE 432 128 320 128
WIRE 528 128 528 -64
WIRE 528 128 496 128
WIRE 96 144 0 144
WIRE 256 144 96 144
WIRE -192 192 -192 144
WIRE 288 192 288 160
WIRE 0 208 0 144
WIRE 96 208 96 144
WIRE 0 304 0 272
WIRE 96 304 96 288
WIRE 96 304 0 304
WIRE 96 320 96 304
FLAG 96 320 0
FLAG -192 192 0
FLAG 288 -64 0
FLAG -192 32 5V+
FLAG 288 -192 5V+
FLAG 288 192 0
FLAG 288 64 5V+
FLAG 96 64 0
FLAG 688 -64 Out
FLAG 96 -112 InA
FLAG 96 144 InB
FLAG 528 -416 5V+
FLAG 624 64 0
SYMBOL voltage 96 192 R0
WINDOW 123 0 0 Left 0
WINDOW 39 0 0 Left 0
SYMATTR InstName V1
SYMATTR Value SINE(1.9 1.4 11)
SYMBOL voltage -192 48 R0
SYMATTR InstName V2
SYMATTR Value 5v
SYMBOL OpAmps\\OP777 288 -192 R0
SYMATTR InstName U2
SYMBOL OpAmps\\OP777 288 64 R0
SYMATTR InstName U1
SYMBOL res 512 -400 R0
SYMATTR InstName R1
SYMATTR Value 10k
SYMBOL schottky 496 112 R90
WINDOW 0 0 32 VBottom 2
WINDOW 3 32 32 VTop 2
SYMATTR InstName D1
SYMATTR Value 1N5817
SYMATTR Description Diode
SYMATTR Type diode
SYMBOL schottky 496 -144 R90
WINDOW 0 0 32 VBottom 2
WINDOW 3 32 32 VTop 2
SYMATTR InstName D2
SYMATTR Value 1N5817
SYMATTR Description Diode
SYMATTR Type diode
SYMBOL voltage 96 -80 R0
WINDOW 123 0 0 Left 0
WINDOW 39 0 0 Left 0
SYMATTR InstName V4
SYMATTR Value SINE(1.9 1.4 10)
SYMBOL cap -16 -48 R0
SYMATTR InstName C1
SYMATTR Value 1nF
SYMBOL cap -16 208 R0
SYMATTR InstName C2
SYMATTR Value 1nF
SYMBOL cap 608 -32 R0
SYMATTR InstName C3
SYMATTR Value 1nF
TEXT -136 -176 Left 2 !.tran 1
